MATDSS_ver0.95/DSS_Files/8500-Node/IEEE8500_Curr_Elem.Txt

CIRCUIT ELEMENT CURRENTS

(Currents into element from indicated bus)

Power Delivery Elements

  Bus                Phase    Magnitude, A     Angle      (Real)   +j  (Imag)

ELEMENT = "Vsource.SOURCE"
SOURCEBUS                1           59.693 /_  170.9 =    -58.943 +j    9.4342
SOURCEBUS                2           54.446 /_   53.0 =     32.771 +j    43.479
SOURCEBUS                3           59.032 /_  -63.7 =     26.172 +j   -52.913
------------
SOURCEBUS                0           59.693 /_   -9.1 =     58.943 +j   -9.4342
SOURCEBUS                0           54.446 /_ -127.0 =    -32.771 +j   -43.479
SOURCEBUS                0           59.032 /_  116.3 =    -26.172 +j    52.913

ELEMENT = "Line.HVMV_SUB_CONNECTOR"
_HVMV_SUB_LSB            1           550.76 /_  -38.0 =     434.06 +j      -339
_HVMV_SUB_LSB            2           531.04 /_ -159.0 =    -495.82 +j   -190.17
_HVMV_SUB_LSB            3           499.29 /_   87.6 =     21.303 +j    498.83
------------
HVMV_SUB_48332           1           550.76 /_  142.0 =    -434.06 +j       339
HVMV_SUB_48332           2           531.04 /_   21.0 =     495.82 +j    190.17
HVMV_SUB_48332           3           499.29 /_  -92.4 =    -21.303 +j   -498.83

ELEMENT = "Line.LN5502549-1"
M1009763                 2           1.9645 /_  178.0 =    -1.9633 +j  0.068736
------------
L2673322                 2           1.9647 /_   -2.0 =     1.9634 +j  -0.06928

ELEMENT = "Line.LN6259988-1"
M1069148                 3           1.4402 /_   65.6 =     0.5959 +j    1.3112
------------
L2673309                 3           1.4407 /_ -114.5 =   -0.59777 +j   -1.3109

ELEMENT = "Line.LN6077796-1"
M1069588                 2           1.6838 /_  179.8 =    -1.6838 +j 0.0060402
------------
L2804270                 2           1.6839 /_   -0.2 =     1.6839 +j -0.0062322

ELEMENT = "Line.LN5835135-2"
M3036164                 2           16.615 /_  178.3 =    -16.608 +j   0.49311
------------
L2935553                 2           16.616 /_   -1.7 =     16.608 +j   -0.4939

ELEMENT = "Line.LN5896826-1"
M1209749                 2          0.82866 /_ -171.2 =    -0.8189 +j  -0.12679
------------
L2748840                 2           0.8296 /_    8.6 =    0.82037 +j   0.12342

ELEMENT = "Line.LN5714038-1"
M1108264                 2           2.1926 /_ -175.0 =    -2.1842 +j  -0.19185
------------
M1108263                 2            2.193 /_    5.0 =     2.1848 +j   0.19018

ELEMENT = "Line.LN5653457-1"
L3085398                 1           20.068 /_  -59.7 =     10.133 +j   -17.322
L3085398                 2           42.145 /_  178.0 =     -42.12 +j    1.4399
L3085398                 3            15.86 /_   64.8 =     6.7533 +j    14.351
------------
M1026891                 1           20.069 /_  120.3 =    -10.131 +j    17.324
M1026891                 2           42.146 /_   -2.0 =     42.121 +j   -1.4422
M1026891                 3           15.861 /_ -115.2 =    -6.7555 +j    -14.35

ELEMENT = "Line.LN5835173-1"
L3216367                 1           28.582 /_  -59.0 =     14.701 +j   -24.511
L3216367                 2           63.518 /_  178.2 =    -63.487 +j    1.9861
L3216367                 3           47.848 /_   64.2 =     20.801 +j     43.09
------------
M1069468                 1           28.582 /_  121.0 =      -14.7 +j    24.512
M1069468                 2           63.518 /_   -1.8 =     63.487 +j   -1.9873
M1069468                 3           47.848 /_ -115.8 =    -20.802 +j    -43.09

ELEMENT = "Line.LN6321415-1"
M1142800                 2           1.4161 /_ -173.5 =     -1.407 +j  -0.15969
------------
M1142799                 2           1.4165 /_    6.4 =     1.4076 +j   0.15815

ELEMENT = "Line.LN5565092-1"
M1047592                 3           2.1547 /_   64.7 =    0.92004 +j    1.9484
------------
P827512                  3           2.1547 /_ -115.3 =    -0.9201 +j   -1.9484

ELEMENT = "Line.LN6073648-1"
M1047339                 1           3.0705 /_  -55.6 =     1.7329 +j   -2.5348
------------
P895104                  1           3.0706 /_  124.4 =    -1.7328 +j    2.5349

ELEMENT = "Line.LN5774457-1"
M1026915                 1            30.13 /_  -59.8 =     15.168 +j   -26.034
M1026915                 2           24.056 /_  178.2 =    -24.045 +j   0.73542
M1026915                 3           22.813 /_   64.8 =     9.7309 +j    20.634
------------
M1026920                 1            30.13 /_  120.2 =    -15.167 +j    26.035
M1026920                 2           24.056 /_   -1.8 =     24.045 +j  -0.73653
M1026920                 3           22.813 /_ -115.3 =     -9.732 +j   -20.633

ELEMENT = "Line.LN5534966-3"
N1138596                 1            11.12 /_  -59.3 =     5.6851 +j   -9.5569
------------
L3254207                 1            11.12 /_  120.7 =    -5.6848 +j    9.5573

ELEMENT = "Line.LN5859996-1"
M1069464                 2           2.8092 /_  178.5 =    -2.8082 +j  0.075485
------------
P873787                  2           2.8093 /_   -1.5 =     2.8082 +j -0.075593

ELEMENT = "Line.LN6138610-2"
N1144665                 1            119.3 /_  -59.3 =     60.903 +j   -102.58
N1144665                 2           91.059 /_  178.5 =    -91.026 +j    2.4461
N1144665                 3           103.48 /_   64.6 =     44.427 +j    93.455
------------
M1047515                 1            119.3 /_  120.7 =    -60.903 +j    102.58
M1047515                 2           91.059 /_   -1.5 =     91.026 +j   -2.4468
M1047515                 3           103.48 /_ -115.4 =    -44.428 +j   -93.455

ELEMENT = "Line.LN6258435-3"
N1137002                 1           2.5345 /_  -59.2 =     1.2966 +j   -2.1778
------------
M1047707                 1           2.5349 /_  120.7 =    -1.2954 +j    2.1789

ELEMENT = "Line.LN5804790-1"
L2729406                 3           1.4709 /_   66.5 =    0.58663 +j    1.3489
------------
L2897768                 3           1.4718 /_ -113.6 =   -0.58996 +j   -1.3484

ELEMENT = "Line.LN6900591-14"
L3649301                 1           4.5827 /_  -59.6 =     2.3195 +j   -3.9524
------------
L3649302                 1            4.583 /_  120.4 =    -2.3187 +j    3.9532

ELEMENT = "Line.LN6409873-1"
L2970842                 2           10.557 /_ -175.0 =    -10.516 +j   -0.9254
------------
M1089113                 2           10.557 /_    5.0 =     10.516 +j    0.9242

ELEMENT = "Line.LN6014135-1"
M1047312                 1           9.6583 /_  -55.7 =     5.4457 +j   -7.9766
------------
P893163                  1           9.6583 /_  124.3 =    -5.4457 +j    7.9766

ELEMENT = "Line.LN6077784-1"
L2822871                 1           58.027 /_  -59.7 =     29.261 +j    -50.11
L2822871                 2           69.688 /_  178.1 =    -69.651 +j    2.2692
L2822871                 3           42.405 /_   64.8 =     18.058 +j    38.368
------------
M1026872                 1           58.028 /_  120.3 =     -29.26 +j    50.111
M1026872                 2           69.688 /_   -1.9 =     69.651 +j    -2.271
M1026872                 3           42.405 /_ -115.2 =     -18.06 +j   -38.367

ELEMENT = "Line.LN5744338-1"
M1026312                 2           27.283 /_ -176.9 =    -27.243 +j   -1.4799
------------
L2973163                 2           27.283 /_    3.1 =     27.243 +j     1.479

ELEMENT = "Line.LN6991381-4"
L3728038                 1            5.101 /_  -59.4 =     2.5962 +j   -4.3908
------------
L3728039                 1           5.1013 /_  120.6 =    -2.5952 +j    4.3919

ELEMENT = "Line.LN5774480-1"
M1069567                 2           31.843 /_  179.8 =    -31.843 +j   0.10315
------------
M1069582                 2           31.844 /_   -0.2 =     31.844 +j  -0.10571

ELEMENT = "Line.LN5986938-3"
N1140830                 1           5.4549 /_  -59.4 =     2.7746 +j   -4.6966
------------
L3216351                 1           5.4549 /_  120.6 =    -2.7745 +j    4.6967

ELEMENT = "Line.LN5894230-1"
L2952007                 3           1.4477 /_   69.9 =    0.49774 +j    1.3595
------------
L2861158                 3           1.4483 /_ -110.2 =   -0.49996 +j   -1.3593

ELEMENT = "Line.LN5683858-3"
N1140827                 1           2.6056 /_  -59.6 =     1.3199 +j   -2.2466
N1140827                 2           4.1735 /_  178.9 =    -4.1727 +j  0.080523
N1140827                 3           2.9361 /_   64.9 =     1.2453 +j    2.6589
------------
M1026726                 1           2.6058 /_  120.4 =    -1.3196 +j    2.2469
M1026726                 2           4.1736 /_   -1.1 =     4.1728 +j -0.080977
M1026726                 3           2.9362 /_ -115.1 =    -1.2457 +j   -2.6588

ELEMENT = "Line.LN5920279-5"
L2730106                 1           349.42 /_  -49.4 =     227.23 +j   -265.44
L2730106                 2           325.73 /_ -171.1 =    -321.76 +j   -50.641
L2730106                 3           224.94 /_   79.4 =     41.393 +j     221.1
------------
N1142099                 1           349.42 /_  130.6 =    -227.23 +j    265.44
N1142099                 2           325.73 /_    8.9 =     321.76 +j     50.64
N1142099                 3           224.94 /_ -100.6 =    -41.394 +j    -221.1

ELEMENT = "Line.LN6439600-1"
M1026658                 1           1.2976 /_  -59.6 =    0.65694 +j    -1.119
------------
L3172805                 1           1.2981 /_  120.3 =   -0.65562 +j    1.1203

ELEMENT = "Line.LN5589097-1"
P895112                  1           1.9657 /_  -53.7 =     1.1644 +j   -1.5837
------------
L3048962                 1           1.9658 /_  126.3 =    -1.1641 +j    1.5841

ELEMENT = "Line.LN5651975-1"
L2991914                 1           61.691 /_  -59.4 =     31.364 +j   -53.123
L2991914                 2           14.868 /_  179.2 =    -14.866 +j   0.20799
L2991914                 3           33.171 /_   65.0 =     14.008 +j    30.068
------------
M1047503                 1           61.691 /_  120.6 =    -31.363 +j    53.124
M1047503                 2           14.868 /_   -0.8 =     14.867 +j  -0.20894
M1047503                 3           33.171 /_ -115.0 =    -14.009 +j   -30.068

ELEMENT = "Line.LN5865236-1"
M1047751                 1           2.5467 /_  -59.0 =     1.3105 +j   -2.1837
------------
L2973154                 1           2.5468 /_  121.0 =    -1.3104 +j    2.1838

ELEMENT = "Line.LN5593232-1"
L3010565                 3           1.4407 /_   65.6 =    0.59562 +j    1.3118
------------
L2897775                 3           1.4413 /_ -114.5 =   -0.59814 +j   -1.3114

ELEMENT = "Line.LN5740283-1"
M1125955                 3           1.7148 /_   67.2 =     0.6649 +j    1.5806
------------
M1125957                 3           1.7148 /_ -112.8 =   -0.66502 +j   -1.5806

ELEMENT = "Line.LN6106559-1"
M1069640                 2           3.9439 /_  179.8 =    -3.9439 +j  0.014333
------------
L2804269                 2           3.9443 /_   -0.2 =     3.9443 +j -0.016024

ELEMENT = "Line.LN5714056-3"
M1026702                 1           51.836 /_  -59.5 =     26.324 +j   -44.655
M1026702                 2           11.409 /_  179.1 =    -11.408 +j   0.17326
M1026702                 3           25.361 /_   65.0 =     10.716 +j    22.986
------------
N1139551                 1           51.837 /_  120.5 =    -26.321 +j    44.658
N1139551                 2            11.41 /_   -0.9 =     11.409 +j  -0.17664
N1139551                 3           25.362 /_ -115.0 =    -10.719 +j   -22.986

ELEMENT = "Line.LN5985355-3"
N1136355                 2           55.557 /_  179.9 =    -55.556 +j    0.1425
------------
L2783231                 2           55.557 /_   -0.1 =     55.557 +j  -0.14372

ELEMENT = "Line.LN5531956-1"
L2748143                 1           1.2889 /_  -58.0 =    0.68301 +j    -1.093
------------
L3251854                 1           1.2892 /_  121.9 =    -0.6822 +j    1.0939

ELEMENT = "Line.LN5650048-1"
M1069610                 2           1.4079 /_  179.8 =    -1.4079 +j 0.0046837
------------
M1069600                 2           1.4081 /_   -0.2 =     1.4081 +j -0.0057323

ELEMENT = "Line.LN6290203-1"
M1069424                 1           21.962 /_  -59.0 =     11.299 +j   -18.832
M1069424                 2           54.802 /_  178.2 =    -54.774 +j     1.764
M1069424                 3           39.135 /_   64.2 =     17.033 +j    35.234
------------
L2935549                 1           21.963 /_  121.0 =    -11.298 +j    18.834
L2935549                 2           54.803 /_   -1.8 =     54.774 +j   -1.7666
L2935549                 3           39.135 /_ -115.8 =    -17.036 +j   -35.233

ELEMENT = "Line.LN6134414-1"
P895089                  3            2.846 /_   65.7 =     1.1695 +j    2.5946
------------
L3235242                 3           2.8462 /_ -114.3 =    -1.1706 +j   -2.5944

ELEMENT = "Line.LN6259998-2"
M1026795                 3            1.732 /_   64.8 =    0.73734 +j    1.5673
------------
N1140522                 3           1.7321 /_ -115.2 =   -0.73758 +j   -1.5672

ELEMENT = "Line.LN6078767-1"
L3030199                 1           106.83 /_  -30.8 =     91.731 +j   -54.748
L3030199                 2            126.1 /_ -155.6 =    -114.87 +j   -52.025
L3030199                 3            155.3 /_   82.1 =     21.286 +j    153.84
------------
M1125934                 1           106.83 /_  149.2 =    -91.731 +j    54.749
M1125934                 2            126.1 /_   24.4 =     114.87 +j    52.024
M1125934                 3            155.3 /_  -97.9 =    -21.287 +j   -153.84

ELEMENT = "Line.LN6017300-1"
M1069189                 3          0.86016 /_   65.6 =    0.35586 +j   0.78309
------------
L2860487                 3          0.86055 /_ -114.5 =   -0.35738 +j  -0.78284

ELEMENT = "Line.LN8979257-2"
221-312488               1           1.3556 /_  -55.1 =    0.77634 +j   -1.1112
221-312488               2           1.4466 /_ -176.1 =    -1.4432 +j -0.098827
221-312488               3           1.4324 /_   67.1 =    0.55667 +j    1.3199
------------
M1089183                 1            1.356 /_  124.9 =   -0.77524 +j    1.1125
M1089183                 2            1.447 /_    3.9 =     1.4438 +j  0.097167
M1089183                 3           1.4329 /_ -112.9 =    -0.5585 +j   -1.3196

ELEMENT = "Line.LN81048109-1"
M1108464                 2           4.3901 /_ -176.1 =      -4.38 +j  -0.29778
------------
L3102286                 2            4.392 /_    3.8 =     4.3823 +j   0.29075

ELEMENT = "Line.293471"
F739845                  1           1.2906 /_  -55.7 =    0.72714 +j   -1.0662
F739845                  2           1.4266 /_ -176.6 =    -1.4241 +j -0.083688
F739845                  3           1.4426 /_   65.0 =    0.60975 +j    1.3074
------------
293471                   1           1.2908 /_  124.3 =   -0.72664 +j    1.0668
293471                   2           1.4268 /_    3.3 =     1.4244 +j  0.082911
293471                   3           1.4427 /_ -115.0 =   -0.61055 +j   -1.3072

ELEMENT = "Line.LN5534965-2"
P827499                  1           1.2765 /_  -59.3 =    0.65151 +j   -1.0978
------------
N1139254                 1           1.2766 /_  120.7 =   -0.65143 +j    1.0979

ELEMENT = "Line.LN5655683-1"
M1026657                 1           20.447 /_  -59.5 =     10.365 +j   -17.625
------------
M1026656                 1           20.447 /_  120.5 =    -10.365 +j    17.625

ELEMENT = "Line.LN5686247-1"
M1108299                 2           1.9913 /_ -174.2 =    -1.9811 +j  -0.20179
------------
M1108300                 2           1.9913 /_    5.8 =     1.9811 +j   0.20168

ELEMENT = "Line.LN6048642-1"
L3198355                 2        0.0018962 /_  -69.4 =  0.00066817 +j -0.0017746
------------
L2805037                 2      7.4999E-012 /_ -166.0 =  -7.276E-012 +j -1.819E-012

ELEMENT = "Line.LN5928544-3"
N1137994                 3           14.526 /_   64.4 =     6.2656 +j    13.105
------------
M1069484                 3           14.526 /_ -115.6 =    -6.2666 +j   -13.105

ELEMENT = "Line.LN6108172-1"
L2860504                 1            2.594 /_  -59.5 =     1.3151 +j    -2.236
------------
L2860493                 1            2.595 /_  120.4 =    -1.3125 +j    2.2386

ELEMENT = "Line.LN5532754-1"
M1026783                 1           56.972 /_  -59.5 =     28.949 +j   -49.069
M1026783                 2           14.872 /_  179.1 =    -14.871 +j   0.22223
M1026783                 3           27.684 /_   65.0 =     11.683 +j    25.098
------------
M1026780                 1           56.973 /_  120.5 =    -28.949 +j     49.07
M1026780                 2           14.872 /_   -0.9 =     14.871 +j   -0.2227
M1026780                 3           27.684 /_ -115.0 =    -11.684 +j   -25.098

ELEMENT = "Line.LN5591834-1"
P895111                  3           3.7198 /_   67.5 =     1.4206 +j    3.4379
------------
L2895496                 3           3.7202 /_ -112.5 =    -1.4219 +j   -3.4377

ELEMENT = "Line.LN6347196-2"
N1140819                 1           28.025 /_  -59.5 =     14.238 +j   -24.139
N1140819                 2           10.581 /_  179.1 =    -10.579 +j   0.16359
N1140819                 3           25.363 /_   65.0 =     10.724 +j    22.984
------------
M1026700                 1           28.025 /_  120.5 =    -14.237 +j    24.139
M1026700                 2           10.581 /_   -0.9 =      10.58 +j   -0.1643
M1026700                 3           25.363 /_ -115.0 =    -10.724 +j   -22.984

ELEMENT = "Line.LN5532741-1"
M1089173                 3           8.9758 /_   66.5 =     3.5773 +j    8.2321
------------
L2935551                 3            8.976 /_ -113.5 =    -3.5783 +j   -8.2319

ELEMENT = "Line.LN5804803-1"
M1026344                 1          0.77611 /_  -55.3 =    0.44227 +j  -0.63776
------------
M1026364                 1          0.77742 /_  124.4 =   -0.43889 +j   0.64169

ELEMENT = "Line.LN6169248-1"
L2879070                 1           111.69 /_  -59.7 =     56.383 +j    -96.41
L2879070                 2           74.532 /_  178.2 =    -74.494 +j    2.3776
L2879070                 3            45.27 /_   64.8 =     19.255 +j    40.971
------------
L3216345                 1           111.69 /_  120.3 =    -56.382 +j    96.412
L3216345                 2           74.533 /_   -1.8 =     74.495 +j   -2.3802
L3216345                 3            45.27 /_ -115.2 =    -19.257 +j    -40.97

ELEMENT = "Line.LN5532786-2"
M1069428                 2           2.2541 /_  178.4 =    -2.2532 +j  0.063854
------------
N1139257                 2           2.2542 /_   -1.6 =     2.2533 +j -0.064139

ELEMENT = "Line.LN5744339-1"
L2991919                 1           16.525 /_  -55.6 =     9.3284 +j   -13.641
------------
M1026361                 1           16.526 /_  124.4 =    -9.3275 +j    13.642

ELEMENT = "Line.LN5531255-3"
N1147857                 1           16.981 /_  -59.8 =     8.5475 +j   -14.673
------------
M1009742                 1           16.981 /_  120.2 =    -8.5468 +j    14.673

ELEMENT = "Line.LN5926308-2"
Q14412                   1           40.374 /_  -55.6 =     22.823 +j   -33.304
Q14412                   2           49.113 /_ -176.8 =    -49.034 +j   -2.7757
Q14412                   3           19.169 /_   65.2 =     8.0402 +j    17.402
------------
M1047325                 1           40.374 /_  124.4 =    -22.823 +j    33.304
M1047325                 2           49.113 /_    3.2 =     49.035 +j    2.7748
M1047325                 3           19.169 /_ -114.8 =    -8.0411 +j   -17.401

ELEMENT = "Line.LN5683856-3"
N1139263                 1           1.2746 /_  -59.4 =    0.64975 +j   -1.0966
------------
L3048227                 1           1.2747 /_  120.6 =   -0.64943 +j    1.0969

ELEMENT = "Line.LN6171502-1"
P827506                  1           2.0368 /_  -59.3 =     1.0409 +j   -1.7508
------------
M1069469                 1           2.0369 /_  120.7 =    -1.0408 +j    1.7508

ELEMENT = "Line.LN5593228-1"
M1027019                 2           1.4029 /_  178.0 =    -1.4021 +j  0.048203
------------
L2785522                 2           1.4032 /_   -2.0 =     1.4024 +j -0.049253

ELEMENT = "Line.LN6380800-1"
L3216338                 2           1.4146 /_  177.9 =    -1.4136 +j  0.051667
------------
L2973146                 2           1.4149 /_   -2.1 =     1.4139 +j -0.052678

ELEMENT = "Line.LN6199525-2"
M3037452                 1          0.51914 /_  -55.6 =    0.29326 +j  -0.42837
------------
L2973164                 1          0.51945 /_  124.3 =   -0.29246 +j    0.4293

ELEMENT = "Line.LN5772710-2"
L3120376                 1           10.227 /_  -59.7 =     5.1584 +j   -8.8306
------------
M1026925                 1           10.227 /_  120.3 =    -5.1573 +j    8.8317

ELEMENT = "Line.LN8961760-1"
M1047612                 3           5.0233 /_   65.0 =     2.1243 +j     4.552
------------
P828360                  3           5.0234 /_ -115.0 =    -2.1247 +j   -4.5519

ELEMENT = "Line.LN6047556-1"
M1089195                 3           1.4232 /_   65.7 =    0.58554 +j    1.2972
------------
L3141393                 3           1.4238 /_ -114.4 =   -0.58759 +j   -1.2969

ELEMENT = "Line.LN6138603-1"
M1026946                 2            2.237 /_  178.2 =    -2.2359 +j   0.07132
------------
M1026940                 2           2.2376 /_   -1.9 =     2.2364 +j -0.073502

ELEMENT = "Line.LN6108139-1"
M1047471                 2          0.86182 /_  177.9 =   -0.86126 +j  0.030868
------------
L3216349                 2           0.8619 /_   -2.1 =    0.86133 +j  -0.03118

ELEMENT = "Line.LN6388581-2"
M1047401                 1          0.78099 /_  -59.2 =    0.39963 +j    -0.671
------------
L2748132                 1          0.78123 /_  120.7 =   -0.39896 +j   0.67168

ELEMENT = "Line.LN5774460-1"
L3122820                 1          0.77943 /_  -59.6 =    0.39403 +j  -0.67249
------------
L3141398                 1           0.7797 /_  120.3 =    -0.3933 +j   0.67323

ELEMENT = "Line.LN5624387-1"
M1108360                 3           2.1907 /_   66.6 =    0.87157 +j    2.0099
------------
L3048968                 3            2.191 /_ -113.5 =   -0.87252 +j   -2.0097

ELEMENT = "Line.LN6137087-1"
L2801950                 3           11.562 /_   65.5 =     4.7883 +j    10.524
------------
M1069224                 3           11.562 /_ -114.5 =    -4.7889 +j   -10.524

ELEMENT = "Line.LN6077809-1"
L2766746                 3           14.558 /_   64.6 =     6.2534 +j    13.146
------------
M1027073                 3           14.558 /_ -115.4 =    -6.2553 +j   -13.146

ELEMENT = "Line.LN6440079-1"
L2895496                 3           3.7202 /_   67.5 =     1.4219 +j    3.4377
------------
M1142873                 3           3.7204 /_ -112.5 =    -1.4228 +j   -3.4376

ELEMENT = "Line.LN5804794-1"
M1069181                 1           11.487 /_  -55.3 =     6.5436 +j   -9.4407
------------
L2973151                 1           11.487 /_  124.7 =    -6.5428 +j    9.4418

ELEMENT = "Line.LN5654484-1"
L3179682                 3             1.44 /_   66.7 =     0.5698 +j    1.3224
------------
L2786274                 3           1.4401 /_ -113.3 =   -0.57029 +j   -1.3224

ELEMENT = "Line.LN5774465-1"
L3066816                 1           2.6042 /_  -59.2 =     1.3318 +j   -2.2378
------------
M1026667                 1           2.6047 /_  120.7 =    -1.3303 +j    2.2394

ELEMENT = "Line.LN5473349-1"
M1108529                 1           299.29 /_  -49.0 =     196.27 +j   -225.95
M1108529                 2           303.16 /_ -171.0 =    -299.42 +j   -47.496
M1108529                 3           210.65 /_   80.2 =     35.834 +j    207.58
------------
M1108532                 1           299.29 /_  131.0 =    -196.27 +j    225.95
M1108532                 2           303.16 /_    9.0 =     299.42 +j    47.495
M1108532                 3           210.65 /_  -99.8 =    -35.835 +j   -207.58

ELEMENT = "Line.LN6169253-1"
L2766723                 1           1.2975 /_  -59.6 =     0.6564 +j   -1.1192
------------
L3122822                 1           1.2977 /_  120.3 =   -0.65571 +j    1.1199

ELEMENT = "Line.LN6350536-1"
L2673312                 1          0.77602 /_  -59.7 =    0.39118 +j  -0.67022
------------
L3235247                 1          0.77677 /_  120.1 =   -0.38911 +j   0.67229

ELEMENT = "Line.LN6048523-1"
M1166391                 3           20.845 /_   69.9 =     7.1508 +j    19.581
------------
L3254873                 3           20.846 /_ -110.1 =    -7.1527 +j    -19.58

ELEMENT = "Line.LN5594152-1"
L2861157                 3           23.145 /_   70.0 =     7.9226 +j    21.747
------------
P901951                  3           23.146 /_ -110.0 =    -7.9248 +j   -21.747

ELEMENT = "Line.LN5865248-1"
M1047346                 1           47.279 /_  -55.6 =     26.724 +j   -39.002
M1047346                 2           51.239 /_ -176.7 =    -51.156 +j   -2.9104
M1047346                 3           19.168 /_   65.2 =     8.0326 +j    17.403
------------
M1047345                 1            47.28 /_  124.4 =    -26.723 +j    39.003
M1047345                 2           51.239 /_    3.3 =     51.157 +j    2.9093
M1047345                 3           19.168 /_ -114.8 =    -8.0337 +j   -17.403

ELEMENT = "Line.LN6046143-1"
L2989596                 2          0.55828 /_  179.9 =   -0.55828 +j 0.00072536
------------
L2822873                 2          0.55867 /_   -0.2 =    0.55867 +j -0.0022157

ELEMENT = "Line.LN5803287-1"
M1108328                 3           2.9044 /_   66.7 =     1.1503 +j     2.667
------------
L2875754                 3           2.9045 /_ -113.3 =    -1.1506 +j   -2.6669

ELEMENT = "Line.LN5589094-1"
L2786204                 3           31.752 /_   70.0 =     10.846 +j    29.842
------------
M1209819                 3           31.752 /_ -110.0 =    -10.847 +j   -29.842

ELEMENT = "Line.LN5954983-1"
P901972                  1           16.981 /_  -59.8 =     8.5466 +j   -14.673
------------
M1009726                 1           16.981 /_  120.2 =    -8.5456 +j    14.674

ELEMENT = "Line.LN5924696-2"
M1047702                 1          0.75849 /_  -59.2 =    0.38843 +j  -0.65148
------------
N1137001                 1          0.75869 /_  120.7 =   -0.38789 +j   0.65203

ELEMENT = "Line.LN6506311-4"
L2767340                 1      4.8617E-005 /_   51.2 =  3.0456E-005 +j 3.7895E-005
L2767340                 2      5.1964E-005 /_  -68.2 =  1.9286E-005 +j -4.8252E-005
L2767340                 3           0.8574 /_   66.9 =    0.33572 +j   0.78895
------------
M3037449                 1       1.528E-010 /_    0.0 =  1.528E-010 +j         0
M3037449                 2      1.3357E-010 /_  -60.6 =  6.5484E-011 +j -1.1642E-010
M3037449                 3          0.85741 /_ -113.1 =   -0.33577 +j  -0.78893

ELEMENT = "Line.LN5653493-1"
M1047457                 2           17.118 /_  178.0 =    -17.108 +j   0.58775
------------
L2710546                 2           17.118 /_   -2.0 =     17.108 +j  -0.58843

ELEMENT = "Line.LN5684836-1"
L2674027                 1           329.22 /_  -49.0 =      215.9 +j   -248.55
L2674027                 2           322.11 /_ -171.0 =    -318.13 +j    -50.47
L2674027                 3           223.83 /_   79.5 =     40.955 +j    220.05
------------
L2692633                 1           329.22 /_  131.0 =     -215.9 +j    248.55
L2692633                 2           322.11 /_    9.0 =     318.13 +j    50.468
L2692633                 3           223.83 /_ -100.5 =    -40.958 +j   -220.05

ELEMENT = "Line.LN5715016-3"
N1142108                 1          0.77755 /_  -53.8 =     0.4591 +j  -0.62754
------------
L2674051                 1          0.77788 /_  126.1 =   -0.45829 +j   0.62855

ELEMENT = "Line.LN6138614-1"
M1069135                 1           56.508 /_   -9.3 =     55.773 +j   -9.0835
M1069135                 2           57.137 /_ -131.5 =    -37.869 +j   -42.785
M1069135                 3           43.468 /_  138.4 =    -32.497 +j    28.869
------------
R18242                   1           56.507 /_  170.7 =    -55.772 +j    9.0849
R18242                   2           57.136 /_   48.5 =      37.87 +j    42.783
R18242                   3           43.466 /_  -41.6 =     32.495 +j   -28.869

ELEMENT = "Line.LN6077781-2"
M1047534                 1           261.24 /_  -59.4 =     132.87 +j   -224.92
M1047534                 2           239.29 /_  178.3 =    -239.19 +j    6.9534
M1047534                 3           194.53 /_   64.7 =     83.007 +j    175.93
------------
N1136663                 1           261.24 /_  120.6 =    -132.87 +j    224.93
N1136663                 2            239.3 /_   -1.7 =     239.19 +j   -6.9568
N1136663                 3           194.53 /_ -115.3 =    -83.011 +j   -175.93

ELEMENT = "Line.LN5675121-1"
M1108508                 3          0.56786 /_   66.1 =    0.22979 +j   0.51929
------------
L3097861                 3          0.56829 /_ -114.0 =   -0.23145 +j  -0.51903

ELEMENT = "Line.LN5773046-1"
M1069560                 2           34.663 /_  179.8 =    -34.662 +j   0.10982
------------
M1069567                 2           34.663 /_   -0.2 =     34.663 +j  -0.11119

ELEMENT = "Line.LN6380809-2"
L2973153                 1           23.099 /_  -59.0 =      11.89 +j   -19.804
L2973153                 2           71.516 /_  178.3 =    -71.484 +j    2.1263
L2973153                 3           8.0022 /_   65.0 =     3.3815 +j    7.2527
------------
N1136998                 1           23.099 /_  121.0 =     -11.89 +j    19.804
N1136998                 2           71.516 /_   -1.7 =     71.484 +j   -2.1266
N1136998                 3           8.0023 /_ -115.0 =    -3.3818 +j   -7.2526

ELEMENT = "Line.LN6018326-1"
L2898515                 3           1.7076 /_   68.8 =    0.61801 +j    1.5918
------------
M1166387                 3           1.7079 /_ -111.3 =   -0.61907 +j   -1.5917

ELEMENT = "Line.LN5472356-1"
M1047442                 2          0.57015 /_  178.1 =   -0.56985 +j  0.018608
------------
...