MATDSS_ver0.95/DSS_Files/8500-Node/IEEE8500_Curr_Seq.Txt

SYMMETRICAL COMPONENT CURRENTS BY CIRCUIT ELEMENT (first 3 phases)

Element                     Term      I1         I2         %I2/I1    I0         %I0/I1   %Normal %Emergency

"VSOURCE.SOURCE" ..........   1      57.679       3.2581     5.65  5.9812E-010     0.00      0.00     0.00
   -                          2      57.679       3.2581     5.65  5.9812E-010     0.00      0.00     0.00
"LINE.HVMV_SUB_CONNECTOR" .   1      526.38       29.132     5.53      16.859     3.20    137.69    91.79
   -                          2      526.38       29.132     5.53      16.859     3.20      0.00     0.00
"LINE.LN5502549-1" ........   1      1.9645            0     0.00           0     0.00      0.49     0.33
   -                          2      1.9647            0     0.00           0     0.00      0.00     0.00
"LINE.LN6259988-1" ........   1      1.4402            0     0.00           0     0.00      0.36     0.24
   -                          2      1.4407            0     0.00           0     0.00      0.00     0.00
"LINE.LN6077796-1" ........   1      1.6838            0     0.00           0     0.00      0.42     0.28
   -                          2      1.6839            0     0.00           0     0.00      0.00     0.00
"LINE.LN5835135-2" ........   1      16.615            0     0.00           0     0.00      4.15     2.77
   -                          2      16.616            0     0.00           0     0.00      0.00     0.00
"LINE.LN5896826-1" ........   1     0.82866            0     0.00           0     0.00      0.21     0.14
   -                          2      0.8296            0     0.00           0     0.00      0.00     0.00
"LINE.LN5714038-1" ........   1      2.1926            0     0.00           0     0.00      0.55     0.37
   -                          2       2.193            0     0.00           0     0.00      0.00     0.00
"LINE.LN5653457-1" ........   1      25.998       7.9541    30.60      8.4269    32.41     10.54     7.02
   -                          2      25.998       7.9541    30.59      8.4268    32.41      0.00     0.00
"LINE.LN5835173-1" ........   1      46.599       8.6499    18.56      11.576    24.84     15.88    10.59
   -                          2      46.599       8.6499    18.56      11.576    24.84      0.00     0.00
"LINE.LN6321415-1" ........   1      1.4161            0     0.00           0     0.00      0.35     0.24
   -                          2      1.4165            0     0.00           0     0.00      0.00     0.00
"LINE.LN5565092-1" ........   1      2.1547            0     0.00           0     0.00      0.54     0.36
   -                          2      2.1547            0     0.00           0     0.00      0.00     0.00
"LINE.LN6073648-1" ........   1      3.0705            0     0.00           0     0.00      0.77     0.51
   -                          2      3.0706            0     0.00           0     0.00      0.00     0.00
"LINE.LN5774457-1" ........   1       25.64       3.0129    11.75      1.5808     6.17      7.53     5.02
   -                          2       25.64       3.0129    11.75      1.5808     6.17      0.00     0.00
"LINE.LN5534966-3" ........   1       11.12            0     0.00           0     0.00      2.78     1.85
   -                          2       11.12            0     0.00           0     0.00      0.00     0.00
"LINE.LN5859996-1" ........   1      2.8092            0     0.00           0     0.00      0.70     0.47
   -                          2      2.8093            0     0.00           0     0.00      0.00     0.00
"LINE.LN6138610-2" ........   1      104.52       11.219    10.73      5.2622     5.03     29.82    19.88
   -                          2      104.52       11.219    10.73      5.2622     5.03      0.00     0.00
"LINE.LN6258435-3" ........   1      2.5345            0     0.00           0     0.00      0.63     0.42
   -                          2      2.5349            0     0.00           0     0.00      0.00     0.00
"LINE.LN5804790-1" ........   1      1.4709            0     0.00           0     0.00      0.37     0.25
   -                          2      1.4718            0     0.00           0     0.00      0.00     0.00
"LINE.LN6900591-14" .......   1      4.5827            0     0.00           0     0.00      1.15     0.76
   -                          2       4.583            0     0.00           0     0.00      0.00     0.00
"LINE.LN6409873-1" ........   1      10.557            0     0.00           0     0.00      2.64     1.76
   -                          2      10.557            0     0.00           0     0.00      0.00     0.00
"LINE.LN6014135-1" ........   1      9.6583            0     0.00           0     0.00      2.41     1.61
   -                          2      9.6583            0     0.00           0     0.00      0.00     0.00
"LINE.LN6077784-1" ........   1      56.647       8.1431    14.38      8.0857    14.27     17.42    11.61
   -                          2      56.648       8.1431    14.38      8.0857    14.27      0.00     0.00
"LINE.LN5744338-1" ........   1      27.283            0     0.00           0     0.00      6.82     4.55
   -                          2      27.283            0     0.00           0     0.00      0.00     0.00
"LINE.LN6991381-4" ........   1       5.101            0     0.00           0     0.00      1.28     0.85
   -                          2      5.1013            0     0.00           0     0.00      0.00     0.00
"LINE.LN5774480-1" ........   1      31.843            0     0.00           0     0.00      7.96     5.31
   -                          2      31.844            0     0.00           0     0.00      0.00     0.00
"LINE.LN5986938-3" ........   1      5.4549            0     0.00           0     0.00      1.36     0.91
   -                          2      5.4549            0     0.00           0     0.00      0.00     0.00
"LINE.LN5894230-1" ........   1      1.4477            0     0.00           0     0.00      0.36     0.24
   -                          2      1.4483            0     0.00           0     0.00      0.00     0.00
"LINE.LN5683858-3" ........   1      3.2351      0.40286    12.45     0.56043    17.32      1.04     0.70
   -                          2      3.2353      0.40287    12.45     0.56043    17.32      0.00     0.00
"LINE.LN5920279-5" ........   1      299.22       45.647    15.26      36.279    12.12     87.35    58.24
   -                          2      299.22       45.647    15.26      36.279    12.12      0.00     0.00
"LINE.LN6439600-1" ........   1      1.2976            0     0.00           0     0.00      0.32     0.22
   -                          2      1.2981            0     0.00           0     0.00      0.00     0.00
"LINE.LN5589097-1" ........   1      1.9657            0     0.00           0     0.00      0.49     0.33
   -                          2      1.9658            0     0.00           0     0.00      0.00     0.00
"LINE.LN5651975-1" ........   1      36.549       14.554    39.82      12.704    34.76     15.42    10.28
   -                          2      36.549       14.554    39.82      12.704    34.76      0.00     0.00
"LINE.LN5865236-1" ........   1      2.5467            0     0.00           0     0.00      0.64     0.42
   -                          2      2.5468            0     0.00           0     0.00      0.00     0.00
"LINE.LN5593232-1" ........   1      1.4407            0     0.00           0     0.00      0.36     0.24
   -                          2      1.4413            0     0.00           0     0.00      0.00     0.00
"LINE.LN5740283-1" ........   1      1.7148            0     0.00           0     0.00      0.43     0.29
   -                          2      1.7148            0     0.00           0     0.00      0.00     0.00
"LINE.LN6106559-1" ........   1      3.9439            0     0.00           0     0.00      0.99     0.66
   -                          2      3.9443            0     0.00           0     0.00      0.00     0.00
"LINE.LN5714056-3" ........   1      29.514       12.571    42.59      11.151    37.78     12.96     8.64
   -                          2      29.515       12.571    42.59      11.151    37.78      0.00     0.00
"LINE.LN5985355-3" ........   1      55.557            0     0.00           0     0.00     13.89     9.26
   -                          2      55.557            0     0.00           0     0.00      0.00     0.00
"LINE.LN5531956-1" ........   1      1.2889            0     0.00           0     0.00      0.32     0.21
   -                          2      1.2892            0     0.00           0     0.00      0.00     0.00
"LINE.LN5650048-1" ........   1      1.4079            0     0.00           0     0.00      0.35     0.23
   -                          2      1.4081            0     0.00           0     0.00      0.00     0.00
"LINE.LN6290203-1" ........   1       38.59       8.2945    21.49      10.693    27.71     13.70     9.13
   -                          2      38.591       8.2945    21.49      10.693    27.71      0.00     0.00
"LINE.LN6134414-1" ........   1       2.846            0     0.00           0     0.00      0.71     0.47
   -                          2      2.8462            0     0.00           0     0.00      0.00     0.00
"LINE.LN6259998-2" ........   1       1.732            0     0.00           0     0.00      0.43     0.29
   -                          2      1.7321            0     0.00           0     0.00      0.00     0.00
"LINE.LN6078767-1" ........   1      129.25       13.869    10.73      15.701    12.15     38.83    25.88
   -                          2      129.25       13.869    10.73      15.701    12.15      0.00     0.00
"LINE.LN6017300-1" ........   1     0.86016            0     0.00           0     0.00      0.22     0.14
   -                          2     0.86055            0     0.00           0     0.00      0.00     0.00
"LINE.LN8979257-2" ........   1      1.4111    0.0045392     0.32    0.051856     3.67      0.76     0.76
   -                          2      1.4116    0.0045733     0.32     0.05184     3.67      0.00     0.00
"LINE.LN81048109-1" .......   1      4.3901            0     0.00           0     0.00      2.00     2.00
   -                          2       4.392            0     0.00           0     0.00      0.00     0.00
"LINE.293471" .............   1      1.3865     0.036351     2.62    0.060002     4.33      0.36     0.24
   -                          2      1.3867     0.036344     2.62    0.059992     4.33      0.00     0.00
"LINE.LN5534965-2" ........   1      1.2765            0     0.00           0     0.00      0.32     0.21
   -                          2      1.2766            0     0.00           0     0.00      0.00     0.00
"LINE.LN5655683-1" ........   1      20.447            0     0.00           0     0.00      5.11     3.41
   -                          2      20.447            0     0.00           0     0.00      0.00     0.00
"LINE.LN5686247-1" ........   1      1.9913            0     0.00           0     0.00      0.50     0.33
   -                          2      1.9913            0     0.00           0     0.00      0.00     0.00
"LINE.LN6048642-1" ........   1   0.0018962            0     0.00           0     0.00      0.00     0.00
   -                          2  7.4999E-012            0     0.00           0     0.00      0.00     0.00
"LINE.LN5928544-3" ........   1      14.526            0     0.00           0     0.00      3.63     2.42
   -                          2      14.526            0     0.00           0     0.00      0.00     0.00
"LINE.LN6108172-1" ........   1       2.594            0     0.00           0     0.00      0.65     0.43
   -                          2       2.595            0     0.00           0     0.00      0.00     0.00
"LINE.LN5532754-1" ........   1      33.152       13.255    39.98      11.679    35.23     14.24     9.50
   -                          2      33.152       13.255    39.98      11.679    35.23      0.00     0.00
"LINE.LN5591834-1" ........   1      3.7198            0     0.00           0     0.00      0.93     0.62
   -                          2      3.7202            0     0.00           0     0.00      0.00     0.00
"LINE.LN6347196-2" ........   1      21.304       6.0495    28.40      4.8053    22.56      7.01     4.67
   -                          2      21.304       6.0495    28.40      4.8053    22.56      0.00     0.00
"LINE.LN5532741-1" ........   1      8.9758            0     0.00           0     0.00      2.24     1.50
   -                          2       8.976            0     0.00           0     0.00      0.00     0.00
"LINE.LN5804803-1" ........   1     0.77611            0     0.00           0     0.00      0.19     0.13
   -                          2     0.77742            0     0.00           0     0.00      0.00     0.00
"LINE.LN6169248-1" ........   1      77.099       20.869    27.07      17.691    22.95     27.92    18.61
   -                          2        77.1       20.869    27.07      17.691    22.95      0.00     0.00
"LINE.LN5532786-2" ........   1      2.2541            0     0.00           0     0.00      0.56     0.38
   -                          2      2.2542            0     0.00           0     0.00      0.00     0.00
"LINE.LN5744339-1" ........   1      16.525            0     0.00           0     0.00      4.13     2.75
   -                          2      16.526            0     0.00           0     0.00      0.00     0.00
"LINE.LN5531255-3" ........   1      16.981            0     0.00           0     0.00      4.25     2.83
   -                          2      16.981            0     0.00           0     0.00      0.00     0.00
"LINE.LN5926308-2" ........   1      36.215       9.1024    25.13      8.6861    23.98     12.28     8.19
   -                          2      36.216       9.1024    25.13      8.6861    23.98      0.00     0.00
"LINE.LN5683856-3" ........   1      1.2746            0     0.00           0     0.00      0.32     0.21
   -                          2      1.2747            0     0.00           0     0.00      0.00     0.00
"LINE.LN6171502-1" ........   1      2.0368            0     0.00           0     0.00      0.51     0.34
   -                          2      2.0369            0     0.00           0     0.00      0.00     0.00
"LINE.LN5593228-1" ........   1      1.4029            0     0.00           0     0.00      0.35     0.23
   -                          2      1.4032            0     0.00           0     0.00      0.00     0.00
"LINE.LN6380800-1" ........   1      1.4146            0     0.00           0     0.00      0.35     0.24
   -                          2      1.4149            0     0.00           0     0.00      0.00     0.00
"LINE.LN6199525-2" ........   1     0.51914            0     0.00           0     0.00      0.13     0.09
   -                          2     0.51945            0     0.00           0     0.00      0.00     0.00
"LINE.LN5772710-2" ........   1      10.227            0     0.00           0     0.00      2.56     1.70
   -                          2      10.227            0     0.00           0     0.00      0.00     0.00
"LINE.LN8961760-1" ........   1      5.0233            0     0.00           0     0.00      2.28     2.28
   -                          2      5.0234            0     0.00           0     0.00      0.00     0.00
"LINE.LN6047556-1" ........   1      1.4232            0     0.00           0     0.00      0.36     0.24
   -                          2      1.4238            0     0.00           0     0.00      0.00     0.00
"LINE.LN6138603-1" ........   1       2.237            0     0.00           0     0.00      0.56     0.37
   -                          2      2.2376            0     0.00           0     0.00      0.00     0.00
"LINE.LN6108139-1" ........   1     0.86182            0     0.00           0     0.00      0.22     0.14
   -                          2      0.8619            0     0.00           0     0.00      0.00     0.00
"LINE.LN6388581-2" ........   1     0.78099            0     0.00           0     0.00      0.20     0.13
   -                          2     0.78123            0     0.00           0     0.00      0.00     0.00
"LINE.LN5774460-1" ........   1     0.77943            0     0.00           0     0.00      0.19     0.13
   -                          2      0.7797            0     0.00           0     0.00      0.00     0.00
"LINE.LN5624387-1" ........   1      2.1907            0     0.00           0     0.00      0.55     0.37
   -                          2       2.191            0     0.00           0     0.00      0.00     0.00
"LINE.LN6137087-1" ........   1      11.562            0     0.00           0     0.00      2.89     1.93
   -                          2      11.562            0     0.00           0     0.00      0.00     0.00
"LINE.LN6077809-1" ........   1      14.558            0     0.00           0     0.00      3.64     2.43
   -                          2      14.558            0     0.00           0     0.00      0.00     0.00
"LINE.LN6440079-1" ........   1      3.7202            0     0.00           0     0.00      0.93     0.62
   -                          2      3.7204            0     0.00           0     0.00      0.00     0.00
"LINE.LN5804794-1" ........   1      11.487            0     0.00           0     0.00      2.87     1.91
   -                          2      11.487            0     0.00           0     0.00      0.00     0.00
"LINE.LN5654484-1" ........   1        1.44            0     0.00           0     0.00      0.36     0.24
   -                          2      1.4401            0     0.00           0     0.00      0.00     0.00
"LINE.LN5774465-1" ........   1      2.6042            0     0.00           0     0.00      0.65     0.43
   -                          2      2.6047            0     0.00           0     0.00      0.00     0.00
"LINE.LN5473349-1" ........   1      270.18       36.098    13.36      31.394    11.62     75.79    50.53
   -                          2      270.18       36.099    13.36      31.394    11.62      0.00     0.00
"LINE.LN6169253-1" ........   1      1.2975            0     0.00           0     0.00      0.32     0.22
   -                          2      1.2977            0     0.00           0     0.00      0.00     0.00
"LINE.LN6350536-1" ........   1     0.77602            0     0.00           0     0.00      0.19     0.13
   -                          2     0.77677            0     0.00           0     0.00      0.00     0.00
"LINE.LN6048523-1" ........   1      20.845            0     0.00           0     0.00      5.21     3.47
   -                          2      20.846            0     0.00           0     0.00      0.00     0.00
"LINE.LN5594152-1" ........   1      23.145            0     0.00           0     0.00      5.79     3.86
   -                          2      23.146            0     0.00           0     0.00      0.00     0.00
"LINE.LN5865248-1" ........   1      39.225       10.366    26.43        9.83    25.06     12.81     8.54
   -                          2      39.226       10.367    26.43        9.83    25.06      0.00     0.00
"LINE.LN6046143-1" ........   1     0.55828            0     0.00           0     0.00      0.14     0.09
   -                          2     0.55867            0     0.00           0     0.00      0.00     0.00
"LINE.LN5803287-1" ........   1      2.9044            0     0.00           0     0.00      0.73     0.48
   -                          2      2.9045            0     0.00           0     0.00      0.00     0.00
"LINE.LN5589094-1" ........   1      31.752            0     0.00           0     0.00      7.94     5.29
   -                          2      31.752            0     0.00           0     0.00      0.00     0.00
"LINE.LN5954983-1" ........   1      16.981            0     0.00           0     0.00      4.25     2.83
   -                          2      16.981            0     0.00           0     0.00      0.00     0.00
"LINE.LN5924696-2" ........   1     0.75849            0     0.00           0     0.00      0.19     0.13
   -                          2     0.75869            0     0.00           0     0.00      0.00     0.00
"LINE.LN6506311-4" ........   1     0.28579      0.28581   100.00      0.2858   100.00      0.21     0.14
   -                          2      0.2858       0.2858   100.00      0.2858   100.00      0.00     0.00
"LINE.LN5653493-1" ........   1      17.118            0     0.00           0     0.00      4.28     2.85
   -                          2      17.118            0     0.00           0     0.00      0.00     0.00
"LINE.LN5684836-1" ........   1      290.93       40.757    14.01      33.318    11.45     82.31    54.87
   -                          2      290.93       40.757    14.01      33.318    11.45      0.00     0.00
"LINE.LN5715016-3" ........   1     0.77755            0     0.00           0     0.00      0.19     0.13
   -                          2     0.77788            0     0.00           0     0.00      0.00     0.00
"LINE.LN6138614-1" ........   1      51.053       9.6707    18.94      9.0793    17.78     14.28     9.52
   -                          2      51.052       9.6708    18.94      9.0793    17.78      0.00     0.00
"LINE.LN6077781-2" ........   1      231.46       24.877    10.75      16.024     6.92     65.31    43.54
   -                          2      231.46       24.877    10.75      16.024     6.92      0.00     0.00
"LINE.LN5675121-1" ........   1     0.56786            0     0.00           0     0.00      0.14     0.09
   -                          2     0.56829            0     0.00           0     0.00      0.00     0.00
"LINE.LN5773046-1" ........   1      34.663            0     0.00           0     0.00      8.67     5.78
   -                          2      34.663            0     0.00           0     0.00      0.00     0.00
"LINE.LN6380809-2" ........   1      34.186       19.293    56.44      19.057    55.75     17.88    11.92
   -                          2      34.186       19.293    56.44      19.057    55.75      0.00     0.00
"LINE.LN6018326-1" ........   1      1.7076            0     0.00           0     0.00      0.43     0.28
   -                          2      1.7079            0     0.00           0     0.00      0.00     0.00
"LINE.LN5472356-1" ........   1     0.57015            0     0.00           0     0.00      0.14     0.10
   -                          2     0.57044            0     0.00           0     0.00      0.00     0.00
"LINE.LN6139641-1" ........   1      347.78       48.999    14.09      40.109    11.53     99.51    66.34
   -                          2      347.78       48.999    14.09      40.109    11.53      0.00     0.00
"LINE.LN6018341-1" ........   1      121.94       14.639    12.00      16.322    13.38     37.61    25.07
   -                          2      121.94       14.639    12.00      16.322    13.38      0.00     0.00
"LINE.LN6017302-1" ........   1      14.116       12.659    89.68      12.648    89.60      9.85     6.57
   -                          2      14.116       12.659    89.68      12.648    89.60      0.00     0.00
"LINE.LN6199505-1" ........   1     0.56308            0     0.00           0     0.00      0.14     0.09
   -                          2     0.56324            0     0.00           0     0.00      0.00     0.00
"LINE.LN5682327-1" ........   1      19.293            0     0.00           0     0.00      4.82     3.22
   -                          2      19.293            0     0.00           0     0.00      0.00     0.00
"LINE.LN6290243-1" ........   1      2.8541            0     0.00           0     0.00      0.71     0.48
   -                          2      2.8544            0     0.00           0     0.00      0.00     0.00
"LINE.X8223_48332_SW" .....   1      67.131       17.868    26.62      16.998    25.32     20.98    13.98
   -                          2      67.131       17.868    26.62      16.998    25.32      0.00     0.00
"LINE.LN6413567-3" ........   1      67.131       17.868    26.62      16.998    25.32     20.98    13.98
   -                          2      67.131       17.868    26.62      16.998    25.32      0.00     0.00
"LINE.LN5591731-3" ........   1      301.04       46.252    15.36      36.432    12.10     88.37    58.91
   -                          2      301.04       46.252    15.36      36.432    12.10      0.00     0.00
"LINE.LN5653470-1" ........   1      1.3768     0.031409     2.28    0.086109     6.25      0.36     0.24
   -                          2      1.3771     0.031377     2.28    0.086108     6.25      0.00     0.00
"LINE.LN6017316-1" ........   1      34.582            0     0.00           0     0.00      8.65     5.76
   -                          2      34.583            0     0.00           0     0.00      0.00     0.00
"LINE.LN5926299-1" ........   1      2.8606            0     0.00           0     0.00      0.72     0.48
   -                          2      2.8609            0     0.00           0     0.00      0.00     0.00
"LINE.LN5683831-1" ........   1      40.663       8.9321    21.97      8.4105    20.68     12.81     8.54
   -                          2      40.664       8.9322    21.97      8.4105    20.68      0.00     0.00
"LINE.LN6352700-1" ........   1      5.2927            0     0.00           0     0.00      1.32     0.88
   -                          2      5.2927            0     0.00           0     0.00      0.00     0.00
"LINE.LN6047570-1" ........   1     0.74685            0     0.00           0     0.00      0.19     0.12
   -                          2     0.74706            0     0.00           0     0.00      0.00     0.00
"LINE.LN5624342-1" ........   1      292.58       41.441    14.16      34.251    11.71     82.65    55.10
   -                          2      292.58       41.441    14.16      34.251    11.71      0.00     0.00
"LINE.LN6259992-1" ........   1      1.3254            0     0.00           0     0.00      0.33     0.22
   -                          2      1.3256            0     0.00           0     0.00      0.00     0.00
"LINE.LN5841919-1" ........   1     0.86195            0     0.00           0     0.00      0.22     0.14
   -                          2     0.86236            0     0.00           0     0.00      0.00     0.00
"LINE.LN6380811-1" ........   1      16.395            0     0.00           0     0.00      4.10     2.73
   -                          2      16.396            0     0.00           0     0.00      0.00     0.00
"LINE.LN5683832-1" ........   1      1.2796            0     0.00           0     0.00      0.32     0.21
   -                          2        1.28            0     0.00           0     0.00      0.00     0.00
"LINE.LN6077778-1" ........   1      1.2604            0     0.00           0     0.00      0.32     0.21
   -                          2      1.2608            0     0.00           0     0.00      0.00     0.00
"LINE.LN5561442-2" ........   1      345.41       50.138    14.52      41.559    12.03     99.01    66.01
   -                          2      345.41       50.138    14.52      41.559    12.03      0.00     0.00
"LINE.LN6259983-1" ........   1      1.4364            0     0.00           0     0.00      0.36     0.24
   -                          2      1.4372            0     0.00           0     0.00      0.00     0.00
"LINE.LN5865244-1" ........   1      16.033            0     0.00           0     0.00      4.01     2.67
   -                          2      16.033            0     0.00           0     0.00      0.00     0.00
"LINE.LN6350555-1" ........   1     0.84474            0     0.00           0     0.00      0.21     0.14
   -                          2     0.84502            0     0.00           0     0.00      0.00     0.00
"LINE.LN5714039-1" ........   1      5.6258            0     0.00           0     0.00      1.41     0.94
   -                          2       5.626            0     0.00           0     0.00      0.00     0.00
"LINE.LN5889821-1" ........   1      298.12       45.138    15.14      36.068    12.10     86.68    57.78
   -                          2      298.12       45.138    15.14      36.068    12.10      0.00     0.00
"LINE.LN5804791-1" ........   1      62.243       16.162    25.97      15.883    25.52     20.98    13.98
   -                          2      62.242       16.162    25.97      15.883    25.52      0.00     0.00
"LINE.LN5653486-1" ........   1       4.335            0     0.00           0     0.00      1.08     0.72
   -                          2      4.3354            0     0.00           0     0.00      0.00     0.00
"LINE.LN5926286-1" ........   1      4.3455            0     0.00           0     0.00      1.09     0.72
   -                          2      4.3458            0     0.00           0     0.00      0.00     0.00
"LINE.LN6318859-1" ........   1  0.00097316            0     0.00           0     0.00      0.00     0.00
   -                          2  1.3117E-011            0     0.00           0     0.00      0.00     0.00
"LINE.LN5926316-1" ........   1      11.502            0     0.00           0     0.00      2.88     1.92
   -                          2      11.502            0     0.00           0     0.00      0.00     0.00
"LINE.LN5591703-1" ........   1      2.5337            0     0.00           0     0.00      0.63     0.42
   -                          2       2.534            0     0.00           0     0.00      0.00     0.00
"LINE.LN5531333-1" ........   1       5.518            0     0.00           0     0.00      1.38     0.92
   -                          2      5.5182            0     0.00           0     0.00      0.00     0.00
"LINE.LN6047581-1" ........   1     0.86408            0     0.00           0     0.00      0.22     0.14
...